<?xml version="1.0" encoding="UTF-8"?>
<!-- 1자형 직선 도로를 위한 Edge 정의 -->
<edges xmlns:xsi="http://www.w3.org/2001/XMLSchema-instance" xsi:noNamespaceSchemaLocation="http://sumo.dlr.de/xsd/edges_file.xsd">
    <!-- 시작에서 종료로 -->
    <edge id="start_to_end" from="start" to="end" priority="2" numLanes="2" speed="13.89"/>

    <!-- 종료에서 시작으로 -->
    <edge id="end_to_start" from="end" to="start" priority="2" numLanes="2" speed="13.89"/>
</edges>
