<?xml version="1.0" encoding="UTF-8"?>
<!-- T형 교차로를 위한 Edge 정의 -->
<edges xmlns:xsi="http://www.w3.org/2001/XMLSchema-instance" xsi:noNamespaceSchemaLocation="http://sumo.dlr.de/xsd/edges_file.xsd">
    <!-- 좌측에서 중앙으로 -->
    <edge id="left_to_center" from="left" to="center" priority="2" numLanes="2" speed="13.89"/>

    <!-- 중앙에서 좌측으로 -->
    <edge id="center_to_left" from="center" to="left" priority="2" numLanes="2" speed="13.89"/>

    <!-- 중앙에서 우측으로 -->
    <edge id="center_to_right" from="center" to="right" priority="2" numLanes="2" speed="13.89"/>

    <!-- 우측에서 중앙으로 -->
    <edge id="right_to_center" from="right" to="center" priority="2" numLanes="2" speed="13.89"/>

    <!-- 하단에서 중앙으로 -->
    <edge id="bottom_to_center" from="bottom" to="center" priority="2" numLanes="2" speed="13.89"/>

    <!-- 중앙에서 하단으로 -->
    <edge id="center_to_bottom" from="center" to="bottom" priority="2" numLanes="2" speed="13.89"/>
</edges>
