<?xml version="1.0" encoding="UTF-8"?>
<!-- 3차선 직선 도로를 위한 Edge 정의 -->
<edges xmlns:xsi="http://www.w3.org/2001/XMLSchema-instance" xsi:noNamespaceSchemaLocation="http://sumo.dlr.de/xsd/edges_file.xsd">
    <!-- 시작에서 종료로 (3차선) -->
    <edge id="start_to_end" from="start" to="end" priority="3" numLanes="3" speed="22.22"/>

    <!-- 종료에서 시작으로 (3차선) -->
    <edge id="end_to_start" from="end" to="start" priority="3" numLanes="3" speed="22.22"/>
</edges>
