<?xml version="1.0" encoding="UTF-8"?>

<!-- generated on 2025-10-20 16:20:08 by Eclipse SUMO netconvert Version 1.24.0
<netconvertConfiguration xmlns:xsi="http://www.w3.org/2001/XMLSchema-instance" xsi:noNamespaceSchemaLocation="http://sumo.dlr.de/xsd/netconvertConfiguration.xsd">

    <input>
        <node-files value="C:\Users\User\GitProject\MapGenerator\y_junction.nod.xml"/>
        <edge-files value="C:\Users\User\GitProject\MapGenerator\y_junction.edg.xml"/>
    </input>

    <output>
        <output-file value="C:\Users\User\GitProject\MapGenerator\y_junction.net.xml"/>
    </output>

</netconvertConfiguration>
-->

<net version="1.20" junctionCornerDetail="5" limitTurnSpeed="5.50" xmlns:xsi="http://www.w3.org/2001/XMLSchema-instance" xsi:noNamespaceSchemaLocation="http://sumo.dlr.de/xsd/net_file.xsd">

    <location netOffset="86.60,100.00" convBoundary="0.00,0.00,173.20,150.00" origBoundary="-86.60,-100.00,86.60,50.00" projParameter="!"/>

    <edge id=":bottom_0" function="internal">
        <lane id=":bottom_0_0" index="0" speed="3.65" length="4.67" shape="85.00,0.00 85.80,-1.20 86.60,-1.60 87.40,-1.20 88.20,0.00"/>
    </edge>
    <edge id=":center_0" function="internal">
        <lane id=":center_0_0" index="0" speed="6.75" length="5.88" shape="89.40,107.16 88.00,106.55 86.60,106.35 85.20,106.55 83.80,107.16"/>
    </edge>
    <edge id=":center_1" function="internal">
        <lane id=":center_1_0" index="0" speed="10.78" length="15.96" shape="89.40,107.16 86.08,104.69 83.70,101.67 82.28,98.11 81.80,94.00"/>
        <lane id=":center_1_1" index="1" speed="9.63" length="12.60" shape="91.00,104.39 88.38,102.44 86.50,100.06 85.38,97.24 85.00,94.00"/>
    </edge>
    <edge id=":center_3" function="internal">
        <lane id=":center_3_0" index="0" speed="3.65" length="1.44" shape="91.00,104.39 90.36,103.10"/>
    </edge>
    <edge id=":center_11" function="internal">
        <lane id=":center_11_0" index="0" speed="3.65" length="3.23" shape="90.36,103.10 90.41,102.20 91.16,101.71 92.60,101.62"/>
    </edge>
    <edge id=":center_4" function="internal">
        <lane id=":center_4_0" index="0" speed="6.75" length="5.88" shape="91.40,94.00 91.58,95.51 92.10,96.82 92.98,97.94 94.20,98.85"/>
        <lane id=":center_4_1" index="1" speed="8.31" length="9.24" shape="88.20,94.00 88.48,96.38 89.30,98.44 90.68,100.19 92.60,101.62"/>
    </edge>
    <edge id=":center_6" function="internal">
        <lane id=":center_6_0" index="0" speed="9.63" length="3.02" shape="88.20,94.00 87.85,97.00"/>
    </edge>
    <edge id=":center_7" function="internal">
        <lane id=":center_7_0" index="0" speed="3.65" length="1.32" shape="88.20,94.00 87.47,95.10"/>
    </edge>
    <edge id=":center_12" function="internal">
        <lane id=":center_12_0" index="0" speed="9.63" length="9.58" shape="87.85,97.00 87.82,97.24 86.70,100.06 84.82,102.44 82.20,104.39"/>
    </edge>
    <edge id=":center_13" function="internal">
        <lane id=":center_13_0" index="0" speed="3.65" length="3.35" shape="87.47,95.10 87.40,95.20 86.60,95.60 85.80,95.20 85.00,94.00"/>
    </edge>
    <edge id=":center_8" function="internal">
        <lane id=":center_8_0" index="0" speed="6.75" length="5.88" shape="79.00,98.85 80.22,97.94 81.10,96.82 81.62,95.51 81.80,94.00"/>
    </edge>
    <edge id=":center_9" function="internal">
        <lane id=":center_9_0" index="0" speed="9.62" length="12.60" shape="80.60,101.62 83.60,100.32 86.60,99.88 89.60,100.32 92.60,101.62"/>
    </edge>
    <edge id=":center_10" function="internal">
        <lane id=":center_10_0" index="0" speed="3.65" length="4.67" shape="80.60,101.62 82.04,101.71 82.79,102.20 82.84,103.10 82.20,104.39"/>
    </edge>
    <edge id=":top_left_0" function="internal">
        <lane id=":top_left_0_0" index="0" speed="3.65" length="4.67" shape="0.80,151.39 -0.64,151.29 -1.39,150.80 -1.44,149.91 -0.80,148.61"/>
    </edge>
    <edge id=":top_right_0" function="internal">
        <lane id=":top_right_0_0" index="0" speed="3.65" length="4.67" shape="174.00,148.61 174.64,149.91 174.59,150.80 173.84,151.29 172.40,151.39"/>
    </edge>

    <edge id="bottom_to_center" from="bottom" to="center" priority="2">
        <lane id="bottom_to_center_0" index="0" speed="13.89" length="94.00" shape="91.40,0.00 91.40,94.00"/>
        <lane id="bottom_to_center_1" index="1" speed="13.89" length="94.00" shape="88.20,0.00 88.20,94.00"/>
    </edge>
    <edge id="center_to_bottom" from="center" to="bottom" priority="2">
        <lane id="center_to_bottom_0" index="0" speed="13.89" length="94.00" shape="81.80,94.00 81.80,0.00"/>
        <lane id="center_to_bottom_1" index="1" speed="13.89" length="94.00" shape="85.00,94.00 85.00,0.00"/>
    </edge>
    <edge id="center_to_top_left" from="center" to="top_left" priority="2">
        <lane id="center_to_top_left_0" index="0" speed="13.89" length="93.99" shape="83.80,107.16 2.40,154.16"/>
        <lane id="center_to_top_left_1" index="1" speed="13.89" length="93.99" shape="82.20,104.39 0.80,151.39"/>
    </edge>
    <edge id="center_to_top_right" from="center" to="top_right" priority="2">
        <lane id="center_to_top_right_0" index="0" speed="13.89" length="93.99" shape="94.20,98.85 175.60,145.84"/>
        <lane id="center_to_top_right_1" index="1" speed="13.89" length="93.99" shape="92.60,101.62 174.00,148.61"/>
    </edge>
    <edge id="top_left_to_center" from="top_left" to="center" priority="2">
        <lane id="top_left_to_center_0" index="0" speed="13.89" length="93.99" shape="-2.40,145.84 79.00,98.85"/>
        <lane id="top_left_to_center_1" index="1" speed="13.89" length="93.99" shape="-0.80,148.61 80.60,101.62"/>
    </edge>
    <edge id="top_right_to_center" from="top_right" to="center" priority="2">
        <lane id="top_right_to_center_0" index="0" speed="13.89" length="93.99" shape="170.80,154.16 89.40,107.16"/>
        <lane id="top_right_to_center_1" index="1" speed="13.89" length="93.99" shape="172.40,151.39 91.00,104.39"/>
    </edge>

    <junction id="bottom" type="priority" x="86.60" y="0.00" incLanes="center_to_bottom_0 center_to_bottom_1" intLanes=":bottom_0_0" shape="86.60,0.00 80.20,0.00 86.60,0.00">
        <request index="0" response="0" foes="0" cont="0"/>
    </junction>
    <junction id="center" type="priority" x="86.60" y="100.00" incLanes="top_right_to_center_0 top_right_to_center_1 bottom_to_center_0 bottom_to_center_1 top_left_to_center_0 top_left_to_center_1" intLanes=":center_0_0 :center_1_0 :center_1_1 :center_11_0 :center_4_0 :center_4_1 :center_12_0 :center_13_0 :center_8_0 :center_9_0 :center_10_0" shape="88.60,108.54 95.00,97.46 93.89,96.56 93.50,96.02 93.22,95.41 93.06,94.73 93.00,94.00 80.20,94.00 79.98,95.41 79.70,96.02 79.31,96.56 78.81,97.04 78.20,97.46 84.60,108.54 85.93,108.03 86.60,107.97 87.27,108.03 87.93,108.22">
        <request index="0"  response="00000000000" foes="00000000000" cont="0"/>
        <request index="1"  response="00000000000" foes="01111000000" cont="0"/>
        <request index="2"  response="00000000000" foes="01111000000" cont="0"/>
        <request index="3"  response="01000110000" foes="01000110000" cont="1"/>
        <request index="4"  response="00000000000" foes="01000001000" cont="0"/>
        <request index="5"  response="00000000000" foes="01000001000" cont="0"/>
        <request index="6"  response="00000000110" foes="11000000110" cont="1"/>
        <request index="7"  response="00000000110" foes="00000000110" cont="1"/>
        <request index="8"  response="00000000110" foes="00000000110" cont="0"/>
        <request index="9"  response="00001110110" foes="00001111110" cont="0"/>
        <request index="10" response="00001000000" foes="00001000000" cont="0"/>
    </junction>
    <junction id="top_left" type="priority" x="0.00" y="150.00" incLanes="center_to_top_left_0 center_to_top_left_1" intLanes=":top_left_0_0" shape="0.00,150.00 3.20,155.54 0.00,150.00">
        <request index="0" response="0" foes="0" cont="0"/>
    </junction>
    <junction id="top_right" type="priority" x="173.20" y="150.00" incLanes="center_to_top_right_0 center_to_top_right_1" intLanes=":top_right_0_0" shape="173.20,150.00 176.40,144.46 173.20,150.00">
        <request index="0" response="0" foes="0" cont="0"/>
    </junction>

    <junction id=":center_11_0" type="internal" x="90.36" y="103.10" incLanes=":center_3_0 bottom_to_center_0 bottom_to_center_1 top_left_to_center_1" intLanes=":center_4_0 :center_4_1 :center_9_0"/>
    <junction id=":center_12_0" type="internal" x="87.85" y="97.00" incLanes=":center_6_0 top_right_to_center_0 top_right_to_center_1" intLanes=":center_0_0 :center_1_0 :center_1_1 :center_9_0 :center_10_0"/>
    <junction id=":center_13_0" type="internal" x="87.47" y="95.10" incLanes=":center_7_0 top_left_to_center_0 top_right_to_center_0 top_right_to_center_1" intLanes=":center_1_0 :center_1_1 :center_8_0"/>

    <connection from="bottom_to_center" to="center_to_top_right" fromLane="0" toLane="0" via=":center_4_0" dir="r" state="M"/>
    <connection from="bottom_to_center" to="center_to_top_right" fromLane="1" toLane="1" via=":center_4_1" dir="r" state="M"/>
    <connection from="bottom_to_center" to="center_to_top_left" fromLane="1" toLane="1" via=":center_6_0" dir="l" state="m"/>
    <connection from="bottom_to_center" to="center_to_bottom" fromLane="1" toLane="1" via=":center_7_0" dir="t" state="m"/>
    <connection from="center_to_bottom" to="bottom_to_center" fromLane="1" toLane="1" via=":bottom_0_0" dir="t" state="M"/>
    <connection from="center_to_top_left" to="top_left_to_center" fromLane="1" toLane="1" via=":top_left_0_0" dir="t" state="M"/>
    <connection from="center_to_top_right" to="top_right_to_center" fromLane="1" toLane="1" via=":top_right_0_0" dir="t" state="M"/>
    <connection from="top_left_to_center" to="center_to_bottom" fromLane="0" toLane="0" via=":center_8_0" dir="r" state="m"/>
    <connection from="top_left_to_center" to="center_to_top_right" fromLane="1" toLane="1" via=":center_9_0" dir="l" state="m"/>
    <connection from="top_left_to_center" to="center_to_top_left" fromLane="1" toLane="1" via=":center_10_0" dir="t" state="m"/>
    <connection from="top_right_to_center" to="center_to_top_left" fromLane="0" toLane="0" via=":center_0_0" dir="r" state="M"/>
    <connection from="top_right_to_center" to="center_to_bottom" fromLane="0" toLane="0" via=":center_1_0" dir="l" state="M"/>
    <connection from="top_right_to_center" to="center_to_bottom" fromLane="1" toLane="1" via=":center_1_1" dir="l" state="M"/>
    <connection from="top_right_to_center" to="center_to_top_right" fromLane="1" toLane="1" via=":center_3_0" dir="t" state="m"/>

    <connection from=":bottom_0" to="bottom_to_center" fromLane="0" toLane="1" dir="t" state="M"/>
    <connection from=":center_0" to="center_to_top_left" fromLane="0" toLane="0" dir="r" state="M"/>
    <connection from=":center_1" to="center_to_bottom" fromLane="0" toLane="0" dir="l" state="M"/>
    <connection from=":center_1" to="center_to_bottom" fromLane="1" toLane="1" dir="l" state="M"/>
    <connection from=":center_3" to="center_to_top_right" fromLane="0" toLane="1" via=":center_11_0" dir="t" state="m"/>
    <connection from=":center_11" to="center_to_top_right" fromLane="0" toLane="1" dir="t" state="M"/>
    <connection from=":center_4" to="center_to_top_right" fromLane="0" toLane="0" dir="r" state="M"/>
    <connection from=":center_4" to="center_to_top_right" fromLane="1" toLane="1" dir="r" state="M"/>
    <connection from=":center_6" to="center_to_top_left" fromLane="0" toLane="1" via=":center_12_0" dir="l" state="m"/>
    <connection from=":center_12" to="center_to_top_left" fromLane="0" toLane="1" dir="l" state="M"/>
    <connection from=":center_7" to="center_to_bottom" fromLane="0" toLane="1" via=":center_13_0" dir="t" state="m"/>
    <connection from=":center_13" to="center_to_bottom" fromLane="0" toLane="1" dir="t" state="M"/>
    <connection from=":center_8" to="center_to_bottom" fromLane="0" toLane="0" dir="r" state="M"/>
    <connection from=":center_9" to="center_to_top_right" fromLane="0" toLane="1" dir="l" state="M"/>
    <connection from=":center_10" to="center_to_top_left" fromLane="0" toLane="1" dir="t" state="M"/>
    <connection from=":top_left_0" to="top_left_to_center" fromLane="0" toLane="1" dir="t" state="M"/>
    <connection from=":top_right_0" to="top_right_to_center" fromLane="0" toLane="1" dir="t" state="M"/>

</net>
